29
6-o-phosphonohexose,6665-00-5,[(2R,3R,4S,5R)-2,3,4,5-tetrahydroxy-6-oxohexyl] dihydrogen phosphate
P	-3.7055	-0.5993	0.1111
O	1.0353	1.5169	-1.3703
O	1.7973	-0.7264	1.4250
O	-0.5827	1.7719	0.9213
O	-2.9166	0.7703	-0.2218
O	4.3388	0.2380	1.0753
O	4.4738	-1.7440	-0.6957
O	-4.1221	-1.1683	-1.3442
O	-5.1063	-0.0633	0.7157
O	-2.9642	-1.5644	0.9892
C	0.8530	0.4274	-0.4598
C	2.0077	0.3936	0.5566
C	-0.5531	0.5671	0.1422
C	3.4304	0.3402	-0.0160
C	-1.6643	0.6802	-0.8959
C	3.6785	-0.8399	-0.9327
H	0.8650	-0.4954	-1.0515
H	1.9518	1.2863	1.1927
H	-0.7461	-0.2594	0.8321
H	3.6557	1.2560	-0.5723
H	-1.6610	-0.1759	-1.5783
H	-1.5646	1.5953	-1.4881
H	1.0255	2.3384	-0.8498
H	2.5177	-0.7273	2.0782
H	-1.4685	1.8394	1.3171
H	3.1012	-0.8393	-1.8729
H	5.2376	0.3398	0.7178
H	-4.5666	-2.0406	-1.4032
H	-5.7417	-0.7117	1.0875
